// JSON to GLM Converter Output
// InputFile 'input.json'
// CreateDate '2024-07-29 16:18:33 '


// CLOCK
clock {
	timezone EST8EDT;
	starttime "1999-12-31 22:00:00 EST";
	stoptime "1999-12-31 23:00:00 EST";
}

// MODULES
module tape
{
	gnuplot_path /usr/bin/gnuplot;
	flush_interval 0;
	csv_data_only 0;
	csv_header_type FULL;
	csv_keep_clean 0;
	delta_mode_needed NEVER;
}
module powerflow
{
	show_matrix_values FALSE;
	primary_voltage_ratio +60 pu;
	nominal_frequency +60 Hz;
	require_voltage_control FALSE;
	geographic_degree +9.65831;
	fault_impedance +1e-06+0j Ohm;
	ground_impedance +1e-06+0j Ohm;
	warning_underfrequency +55 Hz;
	warning_overfrequency +65 Hz;
	warning_undervoltage +0.8 V;
	warning_overvoltage +1.2 V;
	warning_voltageangle +2;
	maximum_voltage_error +1e-09 V;
	solver_method FBS;
	NR_matrix_output_interval NEVER;
	NR_matrix_output_references FALSE;
	NR_matrix_output_rhs FALSE;
	NR_island_failure_handled FALSE;
	line_capacitance FALSE;
	line_limits FALSE;
	NR_iteration_limit 500;
	NR_deltamode_iteration_limit 10;
	NR_superLU_procs 1;
	default_maximum_voltage_error +1e-09 pu;
	default_maximum_power_error +0.0001 pu;
	NR_admit_change TRUE;
	enable_subsecond_models FALSE;
	all_powerflow_delta FALSE;
	deltamode_timestep +1e+07 ns;
	current_frequency +60 Hz;
	master_frequency_update FALSE;
	enable_frequency_dependence FALSE;
	default_resistance +0.0001 Ohm;
	enable_inrush FALSE;
	low_voltage_impedance_level +0.7 pu;
	enable_mesh_fault_current FALSE;
	convergence_error_handling FATAL;
	solver_profile_enable FALSE;
	solver_profile_filename solver_nr_profile.txt;
	solver_profile_headers_included TRUE;
	solver_headers timestamp,duration[microsec],iteration,bus_count,branch_count,error;
	solver_profile_csv FALSE;
	solver_py_config /usr/local/opt/gridlabd/var/gridlabd/solver_py.conf;
	solver_dump_enable FALSE;
	violation_count 0;
	violation_active 0;
	violation_watchset ALL;
	voltage_violation_threshold +0.05 pu;
	undervoltage_violation_threshold +0 pu;
	overvoltage_violation_threshold +0 pu;
	voltage_fluctuation_threshold +0.03 pu;
	DER_violation_test ANY;
	default_continuous_rating +1000 A;
	default_emergency_rating +2000 A;
	default_violation_rating +0 A;
	market_price_name current_market.clearing_price;
	repair_time +24 h;
	wind_speed_name wind_speed;
	wind_dir_name wind_dir;
	wind_gust_name wind_gust;
	stop_on_pole_failure FALSE;
	climate_impact_zone NONE;
	building_defaults building_defaults.csv;
	building_loadshapes building_loadshapes.csv;
	building_occupancy building_occupancy.csv;
	inverter_settings inverter_settings.csv;
	NAICS_datafile naics_data_file.csv;
	ground_temperature +25 degC;
	warning_cable_temperature +80 degC;
	alert_cable_temperature +90 degC;
	ductbank_configuration_file ductbank_configurations.csv;
	air_effective_conductivity +0.2 W/K*m;
}
module climate
{
	library_path /usr/local/opt/gridlabd/4.3.5-240203-master-ubuntu_22-x86_64/share/gridlabd/weather/US;
}
module residential
{
	default_line_voltage +240+0d V;
	default_line_current +0+0j A;
	default_outdoor_temperature +74 degF;
	default_humidity +75 %;
	default_solar +0 Btu/sf;
	default_etp_iterations 100;
	ANSI_voltage_check FALSE;
	enable_subsecond_models FALSE;
	deltamode_timestep +1e+07 ns;
	all_house_delta FALSE;
	implicit_enduses NONE;
	implicit_enduse_source ELCAP2010;
	house_low_temperature_warning +55 degF;
	house_high_temperature_warning +95 degF;
	thermostat_control_warning +4.94066e-324;
	system_dwell_time +1 s;
	aux_cutin_temperature +10 degF;
	paneldump_filename paneldump.csv;
	paneldump_interval 0;
	paneldump_resolution +0;
	sump_humidity_factor +0.01 pu/%/h;
	sump_rainfall_factor +1 pu/in/day;
	sump_snowmelt_factor +0.1 pu/in/day;
	curtailment_enduses DISHWASHER|MICROWAVE|RANGE|EVCHARGER|CLOTHESWASHER|DRYER;
	curtailment_active FALSE;
}

// GLOBALS
// version.major is set to 4
// version.minor is set to 3
// version.patch is set to 5
// version.build is set to 240203
// version.branch is set to master
// version is set to 4.3.5-240203-master
// command_line is set to /usr/local/opt/gridlabd/4.3.5-240203-master-ubuntu_22-x86_64/bin/gridlabd.bin -C data/input/glm2json/input2.glm -o data/input/glm2json/input2.json
#ifndef environment
#define environment=batch
#else
#set environment=batch
#endif //environment
#ifndef quiet
global bool quiet FALSE;
#else
#set quiet=FALSE
#endif //quiet
#ifndef warn
global bool warn TRUE;
#else
#set warn=TRUE
#endif //warn
#ifndef debugger
global bool debugger FALSE;
#else
#set debugger=FALSE
#endif //debugger
#ifndef gdb
global bool gdb FALSE;
#else
#set gdb=FALSE
#endif //gdb
#ifndef debug
global bool debug FALSE;
#else
#set debug=FALSE
#endif //debug
#ifndef test
global bool test FALSE;
#else
#set test=FALSE
#endif //test
#ifndef verbose
global bool verbose FALSE;
#else
#set verbose=FALSE
#endif //verbose
#ifndef iteration_limit
global int32 iteration_limit 100;
#else
#set iteration_limit=100
#endif //iteration_limit
// workdir is set to /home/daviddiaz/codes/API_SIMULADOR
#ifndef dumpfile
#define dumpfile=gridlabd.json
#else
#set dumpfile=gridlabd.json
#endif //dumpfile
#ifndef savefile
#define savefile=data/input/glm2json/input2.json
#else
#set savefile=data/input/glm2json/input2.json
#endif //savefile
#ifndef dumpall
global bool dumpall FALSE;
#else
#set dumpall=FALSE
#endif //dumpall
#ifndef runchecks
global bool runchecks FALSE;
#else
#set runchecks=FALSE
#endif //runchecks
#ifndef threadcount
global int32 threadcount 1;
#else
#set threadcount=1
#endif //threadcount
#ifndef profiler
global bool profiler TRUE;
#else
#set profiler=TRUE
#endif //profiler
#ifndef pauseatexit
global bool pauseatexit FALSE;
#else
#set pauseatexit=FALSE
#endif //pauseatexit
#ifndef testoutputfile
#define testoutputfile=test.txt
#else
#set testoutputfile=test.txt
#endif //testoutputfile
#ifndef xml_encoding
global int32 xml_encoding 8;
#else
#set xml_encoding=8
#endif //xml_encoding
#ifndef clock
global timestamp clock "1999-12-31 22:00:00 EST";
#else
#set clock=1999-12-31 22:00:00 EST
#endif //clock
#ifndef starttime
global timestamp starttime "1999-12-31 22:00:00 EST";
#else
#set starttime=1999-12-31 22:00:00 EST
#endif //starttime
#ifndef stoptime
global timestamp stoptime "1999-12-31 23:00:00 EST";
#else
#set stoptime=1999-12-31 23:00:00 EST
#endif //stoptime
#ifndef double_format
global char32 double_format "%+lg";
#else
#set double_format=%+lg
#endif //double_format
#ifndef complex_format
global char256 complex_format "%+lg%+lg%c";
#else
#set complex_format=%+lg%+lg%c
#endif //complex_format
#ifndef complex_output_format
global enumeration complex_output_format DEFAULT;
#else
#set complex_output_format=DEFAULT
#endif //complex_output_format
#ifndef object_format
global char32 object_format "%s:%d";
#else
#set object_format=%s:%d
#endif //object_format
#ifndef object_scan
global char32 object_scan "%[^:]:%d";
#else
#set object_scan=%[^:]:%d
#endif //object_scan
#ifndef object_tree_balance
global bool object_tree_balance FALSE;
#else
#set object_tree_balance=FALSE
#endif //object_tree_balance
// kmlfile is set to 
#ifndef kmlhost
#define kmlhost=https://code.gridlabd.us/master/runtime
#else
#set kmlhost=https://code.gridlabd.us/master/runtime
#endif //kmlhost
// modelname is set to data/input/glm2json/input2.glm
// execdir is set to /usr/local/opt/gridlabd/4.3.5-240203-master-ubuntu_22-x86_64/bin
#ifndef strictnames
global bool strictnames TRUE;
#else
#set strictnames=TRUE
#endif //strictnames
#ifndef website
#define website=http://www.gridlabd.org/
#else
#set website=http://www.gridlabd.org/
#endif //website
#ifndef urlbase
#define urlbase=http://www.gridlabd.org/
#else
#set urlbase=http://www.gridlabd.org/
#endif //urlbase
#ifndef randomstate
global int32 randomstate 1728049133;
#else
#set randomstate=1728049133
#endif //randomstate
#ifndef randomseed
global int32 randomseed 1;
#else
#set randomseed=1
#endif //randomseed
// include is set to 
// trace is set to 
#ifndef gdb_window
global bool gdb_window FALSE;
#else
#set gdb_window=FALSE
#endif //gdb_window
#ifndef tmp
#define tmp=/home/daviddiaz/.gridlabd/tmp
#else
#set tmp=/home/daviddiaz/.gridlabd/tmp
#endif //tmp
#ifndef force_compile
global int32 force_compile 0;
#else
#set force_compile=0
#endif //force_compile
#ifndef nolocks
global bool nolocks FALSE;
#else
#set nolocks=FALSE
#endif //nolocks
#ifndef skipsafe
global bool skipsafe FALSE;
#else
#set skipsafe=FALSE
#endif //skipsafe
#ifndef dateformat
global enumeration dateformat ISO;
#else
#set dateformat=ISO
#endif //dateformat
#ifndef init_sequence
global enumeration init_sequence DEFERRED;
#else
#set init_sequence=DEFERRED
#endif //init_sequence
#ifndef minimum_timestep
global int32 minimum_timestep 1;
#else
#set minimum_timestep=1
#endif //minimum_timestep
// platform is set to LINUX
#ifndef suppress_repeat_messages
global bool suppress_repeat_messages TRUE;
#else
#set suppress_repeat_messages=TRUE
#endif //suppress_repeat_messages
#ifndef maximum_synctime
global int32 maximum_synctime 60;
#else
#set maximum_synctime=60
#endif //maximum_synctime
#ifndef run_realtime
global bool run_realtime FALSE;
#else
#set run_realtime=FALSE
#endif //run_realtime
#ifndef enter_realtime
global timestamp enter_realtime "NEVER";
#else
#set enter_realtime=NEVER
#endif //enter_realtime
// realtime_metric is set to +0
#ifndef no_deprecate
global bool no_deprecate FALSE;
#else
#set no_deprecate=FALSE
#endif //no_deprecate
// streaming_io is set to FALSE
// compileonly is set to TRUE
#ifndef relax_naming_rules
global bool relax_naming_rules TRUE;
#else
#set relax_naming_rules=TRUE
#endif //relax_naming_rules
#ifndef browser
#define browser=firefox
#else
#set browser=firefox
#endif //browser
#ifndef server_portnum
global int32 server_portnum 0;
#else
#set server_portnum=0
#endif //server_portnum
#ifndef server_quit_on_close
global bool server_quit_on_close FALSE;
#else
#set server_quit_on_close=FALSE
#endif //server_quit_on_close
// client_allowed is set to 
#ifndef autoclean
global bool autoclean TRUE;
#else
#set autoclean=TRUE
#endif //autoclean
#ifndef technology_readiness_level
global enumeration technology_readiness_level UNKNOWN;
#else
#set technology_readiness_level=UNKNOWN
#endif //technology_readiness_level
#ifndef show_progress
global bool show_progress TRUE;
#else
#set show_progress=TRUE
#endif //show_progress
#ifndef checkpoint_type
global enumeration checkpoint_type NONE;
#else
#set checkpoint_type=NONE
#endif //checkpoint_type
// checkpoint_file is set to 
#ifndef checkpoint_seqnum
global int32 checkpoint_seqnum 0;
#else
#set checkpoint_seqnum=0
#endif //checkpoint_seqnum
#ifndef checkpoint_interval
global int32 checkpoint_interval 0;
#else
#set checkpoint_interval=0
#endif //checkpoint_interval
#ifndef checkpoint_keepall
global bool checkpoint_keepall FALSE;
#else
#set checkpoint_keepall=FALSE
#endif //checkpoint_keepall
#ifndef check_version
global bool check_version FALSE;
#else
#set check_version=FALSE
#endif //check_version
#ifndef random_number_generator
global enumeration random_number_generator RNG3;
#else
#set random_number_generator=RNG3
#endif //random_number_generator
#ifndef mainloop_state
global enumeration mainloop_state INIT;
#else
#set mainloop_state=INIT
#endif //mainloop_state
#ifndef pauseat
global timestamp pauseat "NEVER";
#else
#set pauseat=NEVER
#endif //pauseat
// infourl is set to http://docs.gridlabd.us/index.html?owner=arras-energy&project=gridlabd&search=
#ifndef hostname
#define hostname=localhost
#else
#set hostname=localhost
#endif //hostname
#ifndef hostaddr
global char32 hostaddr "127.0.0.1";
#else
#set hostaddr=127.0.0.1
#endif //hostaddr
#ifndef autostart_gui
global bool autostart_gui TRUE;
#else
#set autostart_gui=TRUE
#endif //autostart_gui
// master is set to 
#ifndef master_port
global int64 master_port 0;
#else
#set master_port=0
#endif //master_port
#ifndef multirun_mode
global enumeration multirun_mode STANDALONE;
#else
#set multirun_mode=STANDALONE
#endif //multirun_mode
#ifndef multirun_conn
global enumeration multirun_conn NONE;
#else
#set multirun_conn=NONE
#endif //multirun_conn
#ifndef signal_timeout
global int32 signal_timeout 5000;
#else
#set signal_timeout=5000
#endif //signal_timeout
#ifndef slave_port
global int16 slave_port 6267;
#else
#set slave_port=6267
#endif //slave_port
#ifndef slave_id
global int64 slave_id 0;
#else
#set slave_id=0
#endif //slave_id
// return_code is set to 0
// exit_code is set to 0
#ifndef module_compiler_flags
global set module_compiler_flags NONE;
#else
#set module_compiler_flags=NONE
#endif //module_compiler_flags
// init_max_defer is set to 64
#ifndef mt_analysis
global bool mt_analysis FALSE;
#else
#set mt_analysis=FALSE
#endif //mt_analysis
#ifndef inline_block_size
global int32 inline_block_size 1048576;
#else
#set inline_block_size=1048576
#endif //inline_block_size
#ifndef validate
global set validate TSTD|RALL;
#else
#set validate=TSTD|RALL
#endif //validate
#ifndef sanitize
global set sanitize NAMES|POSITIONS;
#else
#set sanitize=NAMES|POSITIONS
#endif //sanitize
#ifndef sanitize_prefix
global char8 sanitize_prefix "GLD_";
#else
#set sanitize_prefix=GLD_
#endif //sanitize_prefix
#ifndef sanitize_index
#define sanitize_index=.txt
#else
#set sanitize_index=.txt
#endif //sanitize_index
// sanitize_offset is set to 
#ifndef simulation_mode
global enumeration simulation_mode INIT;
#else
#set simulation_mode=INIT
#endif //simulation_mode
#ifndef deltamode_allowed
global bool deltamode_allowed FALSE;
#else
#set deltamode_allowed=FALSE
#endif //deltamode_allowed
#ifndef deltamode_timestep
global int32 deltamode_timestep 10000000;
#else
#set deltamode_timestep=10000000
#endif //deltamode_timestep
#ifndef deltamode_maximumtime
global int64 deltamode_maximumtime 3600000000000;
#else
#set deltamode_maximumtime=3600000000000
#endif //deltamode_maximumtime
#ifndef deltaclock
global int64 deltaclock 0;
#else
#set deltaclock=0
#endif //deltaclock
#ifndef delta_current_clock
global double delta_current_clock +0;
#else
#set delta_current_clock=+0
#endif //delta_current_clock
// deltamode_updateorder is set to 
#ifndef deltamode_iteration_limit
global int32 deltamode_iteration_limit 10;
#else
#set deltamode_iteration_limit=10
#endif //deltamode_iteration_limit
#ifndef deltamode_forced_extra_timesteps
global int32 deltamode_forced_extra_timesteps 0;
#else
#set deltamode_forced_extra_timesteps=0
#endif //deltamode_forced_extra_timesteps
#ifndef deltamode_forced_always
global bool deltamode_forced_always FALSE;
#else
#set deltamode_forced_always=FALSE
#endif //deltamode_forced_always
#ifndef run_powerworld
global bool run_powerworld FALSE;
#else
#set run_powerworld=FALSE
#endif //run_powerworld
#ifndef bigranks
global bool bigranks TRUE;
#else
#set bigranks=TRUE
#endif //bigranks
// exename is set to /usr/local/opt/gridlabd/4.3.5-240203-master-ubuntu_22-x86_64/bin/gridlabd.bin
#ifndef wget_options
#define wget_options=maxsize:100MB;update:newer
#else
#set wget_options=maxsize:100MB;update:newer
#endif //wget_options
#ifndef curl_options
#define curl_options=maxsize:100MB;update:newer
#else
#set curl_options=maxsize:100MB;update:newer
#endif //curl_options
#ifndef svnroot
#define svnroot=http://gridlab-d.svn.sourceforge.net/svnroot/gridlab-d
#else
#set svnroot=http://gridlab-d.svn.sourceforge.net/svnroot/gridlab-d
#endif //svnroot
#ifndef github
#define github=https://github.com/gridlab-d
#else
#set github=https://github.com/gridlab-d
#endif //github
#ifndef gitraw
#define gitraw=https://raw.githubusercontent.com/gridlab-d
#else
#set gitraw=https://raw.githubusercontent.com/gridlab-d
#endif //gitraw
#ifndef allow_reinclude
global bool allow_reinclude FALSE;
#else
#set allow_reinclude=FALSE
#endif //allow_reinclude
#ifndef output_message_context
global set output_message_context ALL;
#else
#set output_message_context=ALL
#endif //output_message_context
#ifndef permissive_access
global int32 permissive_access 0;
#else
#set permissive_access=0
#endif //permissive_access
#ifndef relax_undefined_if
global bool relax_undefined_if FALSE;
#else
#set relax_undefined_if=FALSE
#endif //relax_undefined_if
#ifndef literal_if
global bool literal_if TRUE;
#else
#set literal_if=TRUE
#endif //literal_if
#ifndef validto_context
global enumeration validto_context SYNC;
#else
#set validto_context=SYNC
#endif //validto_context
#ifndef daemon_configfile
#define daemon_configfile=gridlabd.cnf
#else
#set daemon_configfile=gridlabd.cnf
#endif //daemon_configfile
// timezone_locale is set to EST8EDT
#ifndef glm_save_options
global set glm_save_options MINIMAL;
#else
#set glm_save_options=MINIMAL
#endif //glm_save_options
#ifndef filesave_options
global set filesave_options ALL;
#else
#set filesave_options=ALL
#endif //filesave_options
#ifndef ignore_errors
global bool ignore_errors FALSE;
#else
#set ignore_errors=FALSE
#endif //ignore_errors
#ifndef keep_progress
global bool keep_progress FALSE;
#else
#set keep_progress=FALSE
#endif //keep_progress
#ifndef allow_variant_aggregates
global bool allow_variant_aggregates FALSE;
#else
#set allow_variant_aggregates=FALSE
#endif //allow_variant_aggregates
// progress is set to +0
#ifndef server_keepalive
global bool server_keepalive FALSE;
#else
#set server_keepalive=FALSE
#endif //server_keepalive
#ifndef pythonpath
#define pythonpath=.:/usr/local/opt/gridlabd/4.3.5-240203-master-ubuntu_22-x86_64/share/gridlabd:/usr/local/opt/gridlabd/4.3.5-240203-master-ubuntu_22-x86_64/lib/gridlabd/python3.10/site-packages
#else
#set pythonpath=.:/usr/local/opt/gridlabd/4.3.5-240203-master-ubuntu_22-x86_64/share/gridlabd:/usr/local/opt/gridlabd/4.3.5-240203-master-ubuntu_22-x86_64/lib/gridlabd/python3.10/site-packages
#endif //pythonpath
// pythonexec is set to /usr/local/opt/gridlabd/4.3.5-240203-master-ubuntu_22-x86_64/bin/python3
// datadir is set to /usr/local/opt/gridlabd/4.3.5-240203-master-ubuntu_22-x86_64/share/gridlabd
// bindir is set to /usr/local/opt/gridlabd/4.3.5-240203-master-ubuntu_22-x86_64/bin
// vardir is set to /usr/local/opt/gridlabd/4.3.5-240203-master-ubuntu_22-x86_64/var/gridlabd
// libdir is set to /usr/local/opt/gridlabd/4.3.5-240203-master-ubuntu_22-x86_64/lib/gridlabd
// incdir is set to /usr/local/opt/gridlabd/4.3.5-240203-master-ubuntu_22-x86_64/include
// logfile is set to /tmp/gridlabd-log
// pidfile_dir is set to /tmp/gridlabd-pid
// configpath is set to /usr/local/opt/gridlabd/4.3.5-240203-master-ubuntu_22-x86_64/share/gridlabd/solver_py.conf
#ifndef json_complex_format
global set json_complex_format STRING;
#else
#set json_complex_format=STRING
#endif //json_complex_format
#ifndef rusage_file
#define rusage_file=gridlabd-rusage.csv
#else
#set rusage_file=gridlabd-rusage.csv
#endif //rusage_file
#ifndef rusage_rate
global int64 rusage_rate 0;
#else
#set rusage_rate=0
#endif //rusage_rate
#ifndef rusage
#define rusage={}
#else
#set rusage={}
#endif //rusage
#ifndef echo
global bool echo FALSE;
#else
#set echo=FALSE
#endif //echo
// filename is set to data/input/glm2json/input2.glm
#ifndef country
global char8 country "US";
#else
#set country=US
#endif //country
#ifndef region
global char32 region "CA";
#else
#set region=CA
#endif //region
#ifndef organization
global char32 organization "SLAC";
#else
#set organization=SLAC
#endif //organization
// profile_output_format is set to 
#ifndef maximum_runtime
global int64 maximum_runtime 0;
#else
#set maximum_runtime=0
#endif //maximum_runtime
#ifndef flush_output
global int32 flush_output 0;
#else
#set flush_output=0
#endif //flush_output
#ifndef stylesheet
#define stylesheet=http://gridlab-d.svn.sourceforge.net/viewvc/gridlab-d/trunk/core/gridlabd-2_0;
#else
#set stylesheet=http://gridlab-d.svn.sourceforge.net/viewvc/gridlab-d/trunk/core/gridlabd-2_0;
#endif //stylesheet
// tape::gnuplot_path is set to /usr/bin/gnuplot
// tape::flush_interval is set to 0
// tape::csv_data_only is set to 0
// tape::csv_header_type is set to FULL
// tape::csv_keep_clean is set to 0
// tape::delta_mode_needed is set to NEVER
// powerflow::message_flags is set to 
// powerflow::show_matrix_values is set to FALSE
// powerflow::primary_voltage_ratio is set to +60 pu
// powerflow::nominal_frequency is set to +60 Hz
// powerflow::require_voltage_control is set to FALSE
// powerflow::geographic_degree is set to +9.65831
// powerflow::fault_impedance is set to +1e-06+0j Ohm
// powerflow::ground_impedance is set to +1e-06+0j Ohm
// powerflow::warning_underfrequency is set to +55 Hz
// powerflow::warning_overfrequency is set to +65 Hz
// powerflow::warning_undervoltage is set to +0.8 V
// powerflow::warning_overvoltage is set to +1.2 V
// powerflow::warning_voltageangle is set to +2
// powerflow::maximum_voltage_error is set to +1e-09 V
// powerflow::solver_method is set to FBS
// powerflow::NR_matrix_file is set to 
// powerflow::NR_matrix_output_interval is set to NEVER
// powerflow::NR_matrix_output_references is set to FALSE
// powerflow::NR_matrix_output_rhs is set to FALSE
// powerflow::NR_island_failure_handled is set to FALSE
// powerflow::line_capacitance is set to FALSE
// powerflow::line_limits is set to FALSE
// powerflow::lu_solver is set to 
// powerflow::NR_iteration_limit is set to 500
// powerflow::NR_deltamode_iteration_limit is set to 10
// powerflow::NR_superLU_procs is set to 1
// powerflow::default_maximum_voltage_error is set to +1e-09 pu
// powerflow::default_maximum_power_error is set to +0.0001 pu
// powerflow::NR_admit_change is set to TRUE
// powerflow::enable_subsecond_models is set to FALSE
// powerflow::all_powerflow_delta is set to FALSE
// powerflow::deltamode_timestep is set to +1e+07 ns
// powerflow::current_frequency is set to +60 Hz
// powerflow::master_frequency_update is set to FALSE
// powerflow::enable_frequency_dependence is set to FALSE
// powerflow::default_resistance is set to +0.0001 Ohm
// powerflow::enable_inrush is set to FALSE
// powerflow::low_voltage_impedance_level is set to +0.7 pu
// powerflow::enable_mesh_fault_current is set to FALSE
// powerflow::convergence_error_handling is set to FATAL
// powerflow::solver_profile_enable is set to FALSE
// powerflow::solver_profile_filename is set to solver_nr_profile.txt
// powerflow::solver_profile_headers_included is set to TRUE
// powerflow::solver_headers is set to timestamp,duration[microsec],iteration,bus_count,branch_count,error
// powerflow::solver_profile_csv is set to FALSE
// powerflow::solver_py_config is set to /usr/local/opt/gridlabd/var/gridlabd/solver_py.conf
// powerflow::solver_dump_enable is set to FALSE
// powerflow::violation_record is set to 
// powerflow::violation_count is set to 0
// powerflow::violation_active is set to 0
// powerflow::violation_watchset is set to ALL
// powerflow::voltage_violation_threshold is set to +0.05 pu
// powerflow::undervoltage_violation_threshold is set to +0 pu
// powerflow::overvoltage_violation_threshold is set to +0 pu
// powerflow::voltage_fluctuation_threshold is set to +0.03 pu
// powerflow::DER_violation_test is set to ANY
// powerflow::default_continuous_rating is set to +1000 A
// powerflow::default_emergency_rating is set to +2000 A
// powerflow::default_violation_rating is set to +0 A
// powerflow::market_price_name is set to current_market.clearing_price
// powerflow::repair_time is set to +24 h
// powerflow::wind_speed_name is set to wind_speed
// powerflow::wind_dir_name is set to wind_dir
// powerflow::wind_gust_name is set to wind_gust
// powerflow::stop_on_pole_failure is set to FALSE
// powerflow::climate_impact_zone is set to NONE
// powerflow::building_defaults is set to building_defaults.csv
// powerflow::building_loadshapes is set to building_loadshapes.csv
// powerflow::building_occupancy is set to building_occupancy.csv
// powerflow::inverter_settings is set to inverter_settings.csv
// powerflow::NAICS_datafile is set to naics_data_file.csv
// powerflow::ground_temperature is set to +25 degC
// powerflow::warning_cable_temperature is set to +80 degC
// powerflow::alert_cable_temperature is set to +90 degC
// powerflow::ductbank_configuration_file is set to ductbank_configurations.csv
// powerflow::air_effective_conductivity is set to +0.2 W/K*m
// climate::message_flags is set to 
// climate::library_path is set to /usr/local/opt/gridlabd/4.3.5-240203-master-ubuntu_22-x86_64/share/gridlabd/weather/US
// residential::message_flags is set to 
// residential::default_line_voltage is set to +240+0d V
// residential::default_line_current is set to +0+0j A
// residential::default_outdoor_temperature is set to +74 degF
// residential::default_humidity is set to +75 %
// residential::default_solar is set to +0 Btu/sf
// residential::default_etp_iterations is set to 100
// residential::ANSI_voltage_check is set to FALSE
// residential::enable_subsecond_models is set to FALSE
// residential::deltamode_timestep is set to +1e+07 ns
// residential::all_house_delta is set to FALSE
// residential::implicit_enduses is set to NONE
// residential::implicit_enduse_source is set to ELCAP2010
// residential::house_low_temperature_warning is set to +55 degF
// residential::house_high_temperature_warning is set to +95 degF
// residential::thermostat_control_warning is set to +4.94066e-324
// residential::system_dwell_time is set to +1 s
// residential::aux_cutin_temperature is set to +10 degF
// residential::paneldump_filename is set to paneldump.csv
// residential::paneldump_interval is set to 0
// residential::paneldump_resolution is set to +0
// residential::sump_humidity_factor is set to +0.01 pu/%/h
// residential::sump_rainfall_factor is set to +1 pu/in/day
// residential::sump_snowmelt_factor is set to +0.1 pu/in/day
// residential::curtailment_enduses is set to DISHWASHER|MICROWAVE|RANGE|EVCHARGER|CLOTHESWASHER|DRYER
// residential::curtailment_active is set to FALSE
#ifndef default_nominal_voltage_A
global complex default_nominal_voltage_A +240+0d;
#else
#set default_nominal_voltage_A=+240+0d
#endif //default_nominal_voltage_A
#ifndef default_nominal_voltage_B
global complex default_nominal_voltage_B +268.328-26.5651d;
#else
#set default_nominal_voltage_B=+268.328-26.5651d
#endif //default_nominal_voltage_B
#ifndef default_nominal_voltage_C
global complex default_nominal_voltage_C +268.328+26.5651d;
#else
#set default_nominal_voltage_C=+268.328+26.5651d
#endif //default_nominal_voltage_C
#ifndef default_nominal_voltage
global double default_nominal_voltage +240;
#else
#set default_nominal_voltage=+240
#endif //default_nominal_voltage
#ifndef default_weekday_code
global char32 default_weekday_code "WEEKDAY";
#else
#set default_weekday_code=WEEKDAY
#endif //default_weekday_code
#ifndef default_saturday_code
global char32 default_saturday_code "SATURDAY";
#else
#set default_saturday_code=SATURDAY
#endif //default_saturday_code
#ifndef default_sunday_code
global char32 default_sunday_code "SUNDAY";
#else
#set default_sunday_code=SUNDAY
#endif //default_sunday_code
#ifndef default_holiday_code
global char32 default_holiday_code "HOLIDAY";
#else
#set default_holiday_code=HOLIDAY
#endif //default_holiday_code
#ifndef default_month_heading
global char32 default_month_heading "Month";
#else
#set default_month_heading=Month
#endif //default_month_heading
#ifndef default_daytype_heading
global char32 default_daytype_heading "Daytype";
#else
#set default_daytype_heading=Daytype
#endif //default_daytype_heading
#ifndef default_hour_heading
global char32 default_hour_heading "Hour";
#else
#set default_hour_heading=Hour
#endif //default_hour_heading
#ifndef default_temperature_heating_balance
global double default_temperature_heating_balance +55;
#else
#set default_temperature_heating_balance=+55
#endif //default_temperature_heating_balance
#ifndef default_temperature_cooling_balance
global double default_temperature_cooling_balance +70;
#else
#set default_temperature_cooling_balance=+70
#endif //default_temperature_cooling_balance
#ifndef default_temperature_heating_base
global double default_temperature_heating_base +55;
#else
#set default_temperature_heating_base=+55
#endif //default_temperature_heating_base
#ifndef default_temperature_cooling_base
global double default_temperature_cooling_base +70;
#else
#set default_temperature_cooling_base=+70
#endif //default_temperature_cooling_base
#ifndef default_temperature_heating_design
global double default_temperature_heating_design +0;
#else
#set default_temperature_heating_design=+0
#endif //default_temperature_heating_design
#ifndef default_temperature_cooling_design
global double default_temperature_cooling_design +100;
#else
#set default_temperature_cooling_design=+100
#endif //default_temperature_cooling_design
#ifndef default_solargain_base
global double default_solargain_base +0;
#else
#set default_solargain_base=+0
#endif //default_solargain_base
#ifndef default_price_base
global double default_price_base +0;
#else
#set default_price_base=+0
#endif //default_price_base
#ifndef default_occupancy_base
global double default_occupancy_base +1;
#else
#set default_occupancy_base=+1
#endif //default_occupancy_base
#ifndef temperature_variable_name
#define temperature_variable_name=temperature
#else
#set temperature_variable_name=temperature
#endif //temperature_variable_name
#ifndef solargain_variable_name
#define solargain_variable_name=solar_direct
#else
#set solargain_variable_name=solar_direct
#endif //solargain_variable_name
#ifndef price_variable_name
#define price_variable_name=energy_price
#else
#set price_variable_name=energy_price
#endif //price_variable_name
#ifndef occupancy_variable_name
#define occupancy_variable_name=occupancy_fraction
#else
#set occupancy_variable_name=occupancy_fraction
#endif //occupancy_variable_name

// CLASSES// SCHEDULES
schedule ZIP1base_power
{

	00-29  00   *   *  *   1.686360;
	30-59  00   *   *  *   1.616535;
	00-29  01   *   *  *   1.593260;
	30-59  01   *   *  *   1.553267;
	00-29  02   *   *  *   1.539935;
	30-59  02   *   *  *   1.523217;
	00-29  03   *   *  *   1.517644;
	30-59  03   *   *  *   1.526276;
	00-29  04   *   *  *   1.529154;